 # ZnO with wurtzite structure with box vectors H1=[1-210], H2=C[0001], H3=[10-10].
 CRYSTAL
 PRIMVEC
      3.28200000        0.00000000        0.00000000
      0.00000000        5.29100000        0.00000000
     -0.00000000        0.00000000        5.68459075
 CONVVEC
      3.28200000        0.00000000        0.00000000
      0.00000000        5.29100000        0.00000000
     -0.00000000        0.00000000        5.68459075
 PRIMCOORD
        8 1
30        1.64100000        0.00000000        0.94743179
30       -0.00000000        0.00000000        3.78972717
30       -0.00000000        2.64550000        1.89486358
30        1.64100000        2.64550000        4.73715896
8        1.64100000        1.98412500        0.94743179
8       -0.00000000        1.98412500        3.78972717
8       -0.00000000        4.62962500        1.89486358
8        1.64100000        4.62962500        4.73715896
